 Abaqus/Standard 2025                  DATE 15-Apr-2026 TIME 01:45:38
 SUMMARY OF JOB INFORMATION:
 STEP  INC ATT SEVERE EQUIL TOTAL  TOTAL      STEP       INC OF       DOF    IF
               DISCON ITERS ITERS  TIME/    TIME/LPF    TIME/LPF    MONITOR RIKS
               ITERS               FREQ
   1     1   1     3     2     5  0.0250     0.0250     0.02500   
   1     2   1     3     2     5  0.0500     0.0500     0.02500   
   1     3   1     4     1     5  0.0750     0.0750     0.02500   
   1     4   1     4     2     6  0.100      0.100      0.02500   
   1     5   1     4     1     5  0.125      0.125      0.02500   
   1     6   1     5     1     6  0.150      0.150      0.02500   
   1     7   1     5     1     6  0.175      0.175      0.02500   
   1     8   1     4     1     5  0.200      0.200      0.02500   
   1     9   1     5     1     6  0.225      0.225      0.02500   
   1    10   1     4     3     7  0.250      0.250      0.02500   
   1    11   1     5     2     7  0.275      0.275      0.02500   
   1    12   1     5     2     7  0.300      0.300      0.02500   
   1    13   1     5     2     7  0.325      0.325      0.02500   
   1    14   2     3     2     5  0.335      0.335      0.009744  
                          
 THE ANALYSIS HAS COMPLETED SUCCESSFULLY
