 Abaqus/Standard 2025                  DATE 23-Apr-2026 TIME 10:47:18
 SUMMARY OF JOB INFORMATION:
 STEP  INC ATT SEVERE EQUIL TOTAL  TOTAL      STEP       INC OF       DOF    IF
               DISCON ITERS ITERS  TIME/    TIME/LPF    TIME/LPF    MONITOR RIKS
               ITERS               FREQ
   1     1   1     0     1     1  0.0100     0.0100     0.01000   
   1     2   1     4     1     5  0.0200     0.0200     0.01000   
   1     3   1     4     1     5  0.0300     0.0300     0.01000   
   1     4   1     4     1     5  0.0400     0.0400     0.01000   
   1     5   1     3     1     4  0.0500     0.0500     0.01000   
   1     6   1     5     0     5  0.0600     0.0600     0.01000   
   1     7   1     4     1     5  0.0700     0.0700     0.01000   
   1     8   1     4     1     5  0.0800     0.0800     0.01000   
   1     9   1     4     1     5  0.0900     0.0900     0.01000   
   1    10   1     4     1     5  0.100      0.100      0.01000   
   1    11   1     3     2     5  0.110      0.110      0.01000   
   1    12   1     6     0     6  0.120      0.120      0.01000   
   1    13   1     4     1     5  0.130      0.130      0.01000   
   1    14   1     4     1     5  0.140      0.140      0.01000   
   1    15   1     4     1     5  0.150      0.150      0.01000   
   1    16   1     4     1     5  0.160      0.160      0.01000   
   1    17   1     3     2     5  0.170      0.170      0.01000   
   1    18   1     4     1     5  0.180      0.180      0.01000   
   1    19   1     3     1     4  0.190      0.190      0.01000   
   1    20   1     3     1     4  0.200      0.200      0.01000   
   1    21   1     3     1     4  0.210      0.210      0.01000   
   1    22   1     4     1     5  0.220      0.220      0.01000   
   1    23   1     3     1     4  0.230      0.230      0.01000   
   1    24   1     3     2     5  0.240      0.240      0.01000   
   1    25   1     3     1     4  0.250      0.250      0.01000   
   1    26   1     3     1     4  0.260      0.260      0.01000   
   1    27   1     3     1     4  0.270      0.270      0.01000   
   1    28   1     2     2     4  0.280      0.280      0.01000   
   1    29   1     2     2     4  0.290      0.290      0.01000   
   1    30   1     2     2     4  0.300      0.300      0.01000   
   1    31   1     3     1     4  0.310      0.310      0.01000   
   1    32   1     3     1     4  0.320      0.320      0.01000   
   1    33   1     3     1     4  0.330      0.330      0.01000   
   1    34   1     2     1     3  0.340      0.340      0.01000   
   1    35   2     2     1     3  0.346      0.346      0.005597  
                          
 THE ANALYSIS HAS COMPLETED SUCCESSFULLY
