 Abaqus/Standard 2025                  DATE 22-Apr-2026 TIME 08:53:31
 SUMMARY OF JOB INFORMATION:
 STEP  INC ATT SEVERE EQUIL TOTAL  TOTAL      STEP       INC OF       DOF    IF
               DISCON ITERS ITERS  TIME/    TIME/LPF    TIME/LPF    MONITOR RIKS
               ITERS               FREQ
   1     1   1U    0     4     4  0.00       0.00       0.01000   
   1     1   2     0     3     3  0.00250    0.00250    0.002500  
   1     2   1     0     1     1  0.00500    0.00500    0.002500  
   1     3   1     0     1     1  0.00875    0.00875    0.003750  
   1     4   1     5     1     6  0.0144     0.0144     0.005625  
   1     5   1     3     2     5  0.0228     0.0228     0.008438  
   1     6   1     3     1     4  0.0328     0.0328     0.01000   
   1     7   1     4     1     5  0.0428     0.0428     0.01000   
   1     8   1     3     1     4  0.0528     0.0528     0.01000   
   1     9   1     3     1     4  0.0628     0.0628     0.01000   
   1    10   1     3     1     4  0.0728     0.0728     0.01000   
   1    11   1     3     1     4  0.0828     0.0828     0.01000   
   1    12   1     3     1     4  0.0928     0.0928     0.01000   
   1    13   1     4     1     5  0.103      0.103      0.01000   
   1    14   1     5     1     6  0.113      0.113      0.01000   
   1    15   1     3     1     4  0.123      0.123      0.01000   
   1    16   1     3     1     4  0.133      0.133      0.01000   
   1    17   1     4     1     5  0.143      0.143      0.01000   
   1    18   1     3     4     7  0.153      0.153      0.01000   
   1    19   1     3     1     4  0.163      0.163      0.01000   
   1    20   1     3     4     7  0.173      0.173      0.01000   
   1    21   1U    3     4     7  0.173      0.173      0.01000   
   1    21   2     2     2     4  0.175      0.175      0.002500  
   1    22   1     2     1     3  0.179      0.179      0.003750  
   1    23   1     2     2     4  0.185      0.185      0.005625  
   1    24   1U    3     5     8  0.185      0.185      0.008438  
   1    24   2U    4     4     8  0.185      0.185      0.002109  
   1    24   3     2     2     4  0.186      0.186      0.001000  
   1    25   1     2     1     3  0.187      0.187      0.001500  
   1    26   1U    5     1     6  0.187      0.187      0.002250  
   1    26   2     2     1     3  0.188      0.188      0.001000  
   1    27   1     1     2     3  0.190      0.190      0.001500  
   1    28   1U    2     4     6  0.190      0.190      0.002250  
   1    28   2     2     1     3  0.191      0.191      0.001000  
   1    29   1     2     9    11  0.192      0.192      0.001500  
   1    30   1U    1     1     2  0.192      0.192      0.001500  
   1    30   2U    1     4     5  0.192      0.192      0.001000  
                          
 THE ANALYSIS HAS NOT BEEN COMPLETED
