 Abaqus/Standard 2025                  DATE 22-Apr-2026 TIME 14:03:14
 SUMMARY OF JOB INFORMATION:
 STEP  INC ATT SEVERE EQUIL TOTAL  TOTAL      STEP       INC OF       DOF    IF
               DISCON ITERS ITERS  TIME/    TIME/LPF    TIME/LPF    MONITOR RIKS
               ITERS               FREQ
   1     1   1U    0     4     4  0.00       0.00       0.01000   
   1     1   2     0     3     3  0.00250    0.00250    0.002500  
   1     2   1     0     1     1  0.00500    0.00500    0.002500  
   1     3   1     0     1     1  0.00875    0.00875    0.003750  
   1     4   1     5     1     6  0.0144     0.0144     0.005625  
   1     5   1     3     1     4  0.0228     0.0228     0.008438  
   1     6   1     3     1     4  0.0328     0.0328     0.01000   
   1     7   1     3     1     4  0.0428     0.0428     0.01000   
   1     8   1     3     1     4  0.0528     0.0528     0.01000   
   1     9   1     3     1     4  0.0628     0.0628     0.01000   
   1    10   1     4     1     5  0.0728     0.0728     0.01000   
   1    11   1     3     1     4  0.0828     0.0828     0.01000   
   1    12   1     3     1     4  0.0928     0.0928     0.01000   
   1    13   1     3     1     4  0.103      0.103      0.01000   
   1    14   1     4     1     5  0.113      0.113      0.01000   
   1    15   1     3     1     4  0.123      0.123      0.01000   
   1    16   1     3     1     4  0.133      0.133      0.01000   
   1    17   1     4     1     5  0.143      0.143      0.01000   
   1    18   1     4     1     5  0.153      0.153      0.01000   
   1    19   1     3     5     8  0.163      0.163      0.01000   
   1    20   1     3     4     7  0.173      0.173      0.01000   
   1    21   1     4     1     5  0.183      0.183      0.01000   
   1    22   1U    2     1     3  0.183      0.183      0.01000   
   1    22   2     2     1     3  0.185      0.185      0.002500  
   1    23   1     2     1     3  0.189      0.189      0.003750  
   1    24   1     3     2     5  0.195      0.195      0.005625  
   1    25   1     3     1     4  0.203      0.203      0.008438  
   1    26   1U    1     1     2  0.203      0.203      0.01000   
   1    26   2U    2     1     3  0.203      0.203      0.002500  
   1    26   3     1     4     5  0.204      0.204      0.001000  
   1    27   1     2     1     3  0.206      0.206      0.001500  
   1    28   1     2     1     3  0.208      0.208      0.002250  
   1    29   1     2     2     4  0.211      0.211      0.003375  
   1    30   1U    2     1     3  0.211      0.211      0.005063  
   1    30   2     2     1     3  0.213      0.213      0.001266  
   1    31   1     1     6     7  0.214      0.214      0.001898  
   1    32   1U    1     4     5  0.214      0.214      0.001898  
   1    32   2U    2     1     3  0.214      0.214      0.001000  
                          
 THE ANALYSIS HAS NOT BEEN COMPLETED
