 Abaqus/Standard 2025                  DATE 13-Apr-2026 TIME 19:37:38
 SUMMARY OF JOB INFORMATION:
 STEP  INC ATT SEVERE EQUIL TOTAL  TOTAL      STEP       INC OF       DOF    IF
               DISCON ITERS ITERS  TIME/    TIME/LPF    TIME/LPF    MONITOR RIKS
               ITERS               FREQ
   1     1   1     1     3     4  0.0250     0.0250     0.02500   
   1     2   1     1     3     4  0.0500     0.0500     0.02500   
   1     3   1     2     2     4  0.0750     0.0750     0.02500   
   1     4   1     2     2     4  0.100      0.100      0.02500   
   1     5   1     2     2     4  0.125      0.125      0.02500   
   1     6   1     1     3     4  0.150      0.150      0.02500   
   1     7   1     1     3     4  0.175      0.175      0.02500   
   1     8   1     1     3     4  0.200      0.200      0.02500   
   1     9   1     3     2     5  0.225      0.225      0.02500   
   1    10   1U    0     1     1  0.225      0.225      0.02500   
   1    10   2     1     2     3  0.231      0.231      0.006250  
   1    11   1     1     2     3  0.241      0.241      0.009375  
   1    12   1     1     5     6  0.255      0.255      0.01406   
   1    13   1U   11    12    23  0.255      0.255      0.002911  
   1    13   2     2     2     4  0.256      0.256      0.001455  
   1    14   1U    0     1     1  0.256      0.256      0.001455  
   1    14   2     1     2     3  0.257      0.257      0.0003638 
   1    15   1U    2     4     6  0.257      0.257      0.0005458 
   1    15   2U    0     7     7  0.257      0.257      0.0001364 
   1    15   3     0     3     3  0.257      0.257      3.411e-05 
   1    16   1     0     2     2  0.257      0.257      5.116e-05 
   1    17   1U    0     5     5  0.257      0.257      7.675e-05 
   1    17   2     0     3     3  0.257      0.257      1.919e-05 
   1    18   1     2     5     7  0.257      0.257      2.878e-05 
   1    19   1     1     2     3  0.257      0.257      2.878e-05 
   1    20   1     0     3     3  0.257      0.257      2.878e-05 
   1    21   1     0     1     1  0.257      0.257      4.317e-05 
   1    22   1     0     1     1  0.257      0.257      6.476e-05 
   1    23   1     1     2     3  0.257      0.257      9.713e-05 
   1    24   1U    0     5     5  0.257      0.257      0.0001457 
   1    24   2     0     1     1  0.257      0.257      3.643e-05 
   1    25   1     0     2     2  0.257      0.257      5.464e-05 
   1    26   1U    0     6     6  0.257      0.257      8.196e-05 
   1    26   2U    4     6    10  0.257      0.257      2.049e-05 
   1    26   3     0     2     2  0.257      0.257      1.000e-05 
   1    27   1U    0     6     6  0.257      0.257      1.500e-05 
   1    27   2U    0     8     8  0.257      0.257      1.000e-05 
                          
 THE ANALYSIS HAS NOT BEEN COMPLETED
