 Abaqus/Standard 2025                  DATE 10-Apr-2026 TIME 17:09:11
 SUMMARY OF JOB INFORMATION:
 STEP  INC ATT SEVERE EQUIL TOTAL  TOTAL      STEP       INC OF       DOF    IF
               DISCON ITERS ITERS  TIME/    TIME/LPF    TIME/LPF    MONITOR RIKS
               ITERS               FREQ
   1     1   1     0     1     1  0.0100     0.0100     0.01000   
   1     2   1     3     2     5  0.0200     0.0200     0.01000   
   1     3   1     4     2     6  0.0350     0.0350     0.01500   
   1     4   1     3     1     4  0.0575     0.0575     0.02250   
   1     5   1     3     2     5  0.0825     0.0825     0.02500   
   1     6   1     4     1     5  0.108      0.108      0.02500   
   1     7   1     3     2     5  0.133      0.133      0.02500   
   1     8   1     3     2     5  0.158      0.158      0.02500   
   1     9   1     3     2     5  0.182      0.182      0.02500   
   1    10   1     3     2     5  0.207      0.207      0.02500   
   1    11   1     3     2     5  0.232      0.232      0.02500   
   1    12   1     3     2     5  0.258      0.258      0.02500   
   1    13   1     3     2     5  0.283      0.283      0.02500   
   1    14   1U    1     1     2  0.283      0.283      0.02500   
   1    14   2     3     1     4  0.289      0.289      0.006250  
   1    15   1     2     2     4  0.298      0.298      0.009375  
   1    16   1U    0     1     1  0.298      0.298      0.01406   
   1    16   2     2     2     4  0.302      0.302      0.003516  
   1    17   1     2     4     6  0.307      0.307      0.005273  
   1    18   1     3     1     4  0.315      0.315      0.007910  
   1    19   1     3     2     5  0.327      0.327      0.01187   
   1    20   1     1     2     3  0.327      0.327      0.0003613 
   1    21   2     1     2     3  0.327      0.327      0.0001607 
                          
 THE ANALYSIS HAS COMPLETED SUCCESSFULLY
