 Abaqus/Standard 2025                  DATE 18-Apr-2026 TIME 14:54:19
 SUMMARY OF JOB INFORMATION:
 STEP  INC ATT SEVERE EQUIL TOTAL  TOTAL      STEP       INC OF       DOF    IF
               DISCON ITERS ITERS  TIME/    TIME/LPF    TIME/LPF    MONITOR RIKS
               ITERS               FREQ
   1     1   1     0     1     1  0.0100     0.0100     0.01000   
   1     2   1     3     2     5  0.0200     0.0200     0.01000   
   1     3   1     3     2     5  0.0350     0.0350     0.01500   
   1     4   1     3     2     5  0.0575     0.0575     0.02250   
   1     5   1     4     2     6  0.0825     0.0825     0.02500   
   1     6   1     4     1     5  0.108      0.108      0.02500   
   1     7   1     4     3     7  0.133      0.133      0.02500   
   1     8   1     4     1     5  0.158      0.158      0.02500   
   1     9   1     4     2     6  0.182      0.182      0.02500   
   1    10   1U    5     5    10  0.182      0.182      0.02500   
   1    10   2     3     1     4  0.189      0.189      0.006250  
   1    11   1     3     2     5  0.198      0.198      0.009375  
   1    12   1U    4     1     5  0.198      0.198      0.01406   
   1    12   2     2     3     5  0.202      0.202      0.003516  
   1    13   1U    2     5     7  0.202      0.202      0.005273  
   1    13   2     2     5     7  0.203      0.203      0.001318  
   1    14   1     1     3     4  0.204      0.204      0.001318  
   1    15   1U    1    16    17  0.204      0.204      0.001318  
   1    15   2     1    15    16  0.205      0.205      0.001000  
   1    16   1     1     8     9  0.206      0.206      0.001000  
   1    17   1     1    13    14  0.207      0.207      0.001000  
   1    18   1U    1    16    17  0.207      0.207      0.001000  
                          
 THE ANALYSIS HAS NOT BEEN COMPLETED
