 Abaqus/Standard 2025                  DATE 15-Apr-2026 TIME 00:31:50
 SUMMARY OF JOB INFORMATION:
 STEP  INC ATT SEVERE EQUIL TOTAL  TOTAL      STEP       INC OF       DOF    IF
               DISCON ITERS ITERS  TIME/    TIME/LPF    TIME/LPF    MONITOR RIKS
               ITERS               FREQ
   1     1   1     1     3     4  0.0250     0.0250     0.02500   
   1     2   1     3     2     5  0.0500     0.0500     0.02500   
   1     3   1     2     2     4  0.0750     0.0750     0.02500   
   1     4   1     2     2     4  0.100      0.100      0.02500   
   1     5   1     2     2     4  0.125      0.125      0.02500   
   1     6   1     2     2     4  0.150      0.150      0.02500   
   1     7   1U    0     1     1  0.150      0.150      0.02500   
   1     7   2     2     2     4  0.156      0.156      0.006250  
   1     8   1U    1     1     2  0.156      0.156      0.009375  
   1     8   2     1     3     4  0.159      0.159      0.002344  
   1     9   1     2     2     4  0.162      0.162      0.003516  
   1    10   1U    0     1     1  0.162      0.162      0.005273  
   1    10   2     1     2     3  0.163      0.163      0.001318  
   1    11   1     1     3     4  0.165      0.165      0.001978  
   1    12   1     2     2     4  0.168      0.168      0.002966  
   1    13   1     2     2     4  0.173      0.173      0.004449  
   1    14   1     2     2     4  0.179      0.179      0.006674  
   1    15   1     2     2     4  0.190      0.190      0.01001   
   1    16   1     2     4     6  0.205      0.205      0.01502   
   1    17   1U    0     1     1  0.205      0.205      0.02253   
   1    17   2     1     4     5  0.210      0.210      0.005631  
   1    18   1     2     4     6  0.219      0.219      0.008447  
   1    19   1U    0     1     1  0.219      0.219      0.01267   
   1    19   2     2     3     5  0.222      0.222      0.003168  
   1    20   1U   15     2    17  0.222      0.222      0.004751  
   1    20   2     1     3     4  0.223      0.223      0.001188  
   1    21   1U    1     4     5  0.223      0.223      0.001782  
   1    21   2     1     2     3  0.223      0.223      0.0004454 
   1    22   1     1     2     3  0.224      0.224      0.0006682 
   1    23   1U    8    11    19  0.224      0.224      0.001002  
   1    23   2     0    10    10  0.224      0.224      0.0002506 
   1    24   1U    0     4     4  0.224      0.224      0.0002506 
   1    24   2     0    13    13  0.224      0.224      6.264e-05 
   1    25   1     0    10    10  0.224      0.224      4.698e-05 
   1    26   1     0     1     1  0.224      0.224      4.698e-05 
   1    27   1     0     1     1  0.225      0.225      4.698e-05 
   1    28   1U    0     4     4  0.225      0.225      7.047e-05 
   1    28   2     0     1     1  0.225      0.225      1.762e-05 
   1    29   1U    0     4     4  0.225      0.225      2.643e-05 
   1    29   2U    0     4     4  0.225      0.225      1.000e-05 
                          
 THE ANALYSIS HAS NOT BEEN COMPLETED
