 Abaqus/Standard 2025                  DATE 09-Apr-2026 TIME 21:26:47
 SUMMARY OF JOB INFORMATION:
 STEP  INC ATT SEVERE EQUIL TOTAL  TOTAL      STEP       INC OF       DOF    IF
               DISCON ITERS ITERS  TIME/    TIME/LPF    TIME/LPF    MONITOR RIKS
               ITERS               FREQ
   1     1   1     0     1     1  0.0100     0.0100     0.01000   
   1     2   1     2     1     3  0.0200     0.0200     0.01000   
   1     3   1     3     2     5  0.0350     0.0350     0.01500   
   1     4   1     2     3     5  0.0575     0.0575     0.02250   
   1     5   1     3     2     5  0.0825     0.0825     0.02500   
   1     6   1     4     1     5  0.108      0.108      0.02500   
   1     7   1     3     2     5  0.133      0.133      0.02500   
   1     8   1     3     2     5  0.158      0.158      0.02500   
   1     9   1     3     2     5  0.182      0.182      0.02500   
   1    10   1     4     1     5  0.207      0.207      0.02500   
   1    11   1     4     2     6  0.232      0.232      0.02500   
   1    12   1     3     2     5  0.258      0.258      0.02500   
   1    13   1     4     1     5  0.283      0.283      0.02500   
   1    14   1     4     1     5  0.308      0.308      0.02500   
   1    15   1     7     6    13  0.333      0.333      0.02500   
   1    16   1U    2     1     3  0.333      0.333      0.02500   
   1    16   2     3     2     5  0.339      0.339      0.006250  
   1    17   1     3     1     4  0.345      0.345      0.006250  
   1    18   1U    0     1     1  0.345      0.345      0.009375  
   1    18   2     2     2     4  0.347      0.347      0.002344  
   1    19   1U    0     1     1  0.347      0.347      0.003516  
   1    19   2     2     2     4  0.348      0.348      0.0008789 
   1    20   1U    2     1     3  0.348      0.348      0.001318  
   1    20   2U    2     4     6  0.348      0.348      0.0003296 
   1    20   3     1     2     3  0.348      0.348      8.240e-05 
   1    21   1U    1     6     7  0.348      0.348      0.0001236 
   1    21   2     0     2     2  0.348      0.348      3.090e-05 
   1    22   1     1     2     3  0.348      0.348      4.635e-05 
   1    23   1U    1     5     6  0.348      0.348      6.952e-05 
   1    23   2     1     3     4  0.348      0.348      1.738e-05 
   1    24   1     2     5     7  0.348      0.348      2.607e-05 
   1    25   1     1     5     6  0.348      0.348      2.607e-05 
   1    26   1     0     2     2  0.348      0.348      2.607e-05 
   1    27   1     0     1     1  0.349      0.349      2.607e-05 
   1    28   1     0     1     1  0.349      0.349      3.911e-05 
   1    29   1     0     1     1  0.349      0.349      5.866e-05 
   1    30   1     1     2     3  0.349      0.349      8.799e-05 
   1    31   1     1     2     3  0.349      0.349      0.0001320 
   1    32   1     1     2     3  0.349      0.349      0.0001980 
   1    33   1     1     2     3  0.349      0.349      0.0002970 
   1    34   1     1     2     3  0.350      0.350      0.0004454 
   1    35   1     1     2     3  0.350      0.350      0.0006682 
   1    36   1     1     2     3  0.351      0.351      0.001002  
   1    37   1     1     2     3  0.353      0.353      0.001503  
   1    38   1     2     2     4  0.355      0.355      0.002255  
   1    39   1     3     9    12  0.359      0.359      0.003383  
   1    40   1U    2     9    11  0.359      0.359      0.003383  
   1    40   2U    2     4     6  0.359      0.359      0.001691  
   1    40   3U    1    16    17  0.359      0.359      0.0004228 
   1    40   4U    1    16    17  0.359      0.359      0.0001057 
   1    40   5U    0    16    16  0.359      0.359      2.643e-05 
   1    40   6U    0    16    16  0.359      0.359      2.643e-05 
                          
 THE ANALYSIS HAS NOT BEEN COMPLETED
