 Abaqus/Standard 2025                  DATE 23-Apr-2026 TIME 17:38:47
 SUMMARY OF JOB INFORMATION:
 STEP  INC ATT SEVERE EQUIL TOTAL  TOTAL      STEP       INC OF       DOF    IF
               DISCON ITERS ITERS  TIME/    TIME/LPF    TIME/LPF    MONITOR RIKS
               ITERS               FREQ
   1     1   1     0     1     1  0.0100     0.0100     0.01000   
   1     2   1     4     2     6  0.0200     0.0200     0.01000   
   1     3   1     3     1     4  0.0300     0.0300     0.01000   
   1     4   1     3     2     5  0.0400     0.0400     0.01000   
   1     5   1     4     1     5  0.0500     0.0500     0.01000   
   1     6   1     4     1     5  0.0600     0.0600     0.01000   
   1     7   1     4     1     5  0.0700     0.0700     0.01000   
   1     8   1     4     1     5  0.0800     0.0800     0.01000   
   1     9   1     4     1     5  0.0900     0.0900     0.01000   
   1    10   1     4     1     5  0.100      0.100      0.01000   
   1    11   1     4     1     5  0.110      0.110      0.01000   
   1    12   1     4     1     5  0.120      0.120      0.01000   
   1    13   1     4     1     5  0.130      0.130      0.01000   
   1    14   1     4     1     5  0.140      0.140      0.01000   
   1    15   1     4     1     5  0.150      0.150      0.01000   
   1    16   1     4     1     5  0.160      0.160      0.01000   
   1    17   1     4     1     5  0.170      0.170      0.01000   
   1    18   1     4     1     5  0.180      0.180      0.01000   
   1    19   1     3     1     4  0.190      0.190      0.01000   
   1    20   1     3     1     4  0.200      0.200      0.01000   
   1    21   1     3     2     5  0.210      0.210      0.01000   
   1    22   1     2     2     4  0.220      0.220      0.01000   
   1    23   1     4     9    13  0.230      0.230      0.01000   
   1    24   1U    2     1     3  0.230      0.230      0.01000   
   1    24   2U    5     7    12  0.230      0.230      0.002500  
   1    24   3     5    12    17  0.231      0.231      0.001000  
   1    25   1U    2     2     4  0.231      0.231      0.001000  
                          
 THE ANALYSIS HAS NOT BEEN COMPLETED
