 Abaqus/Standard 2025                  DATE 21-Apr-2026 TIME 21:14:08
 SUMMARY OF JOB INFORMATION:
 STEP  INC ATT SEVERE EQUIL TOTAL  TOTAL      STEP       INC OF       DOF    IF
               DISCON ITERS ITERS  TIME/    TIME/LPF    TIME/LPF    MONITOR RIKS
               ITERS               FREQ
   1     1   1U    0     4     4  0.00       0.00       0.01000   
   1     1   2     0     3     3  0.00250    0.00250    0.002500  
   1     2   1     0     1     1  0.00500    0.00500    0.002500  
   1     3   1     0     1     1  0.00875    0.00875    0.003750  
   1     4   1     5     1     6  0.0144     0.0144     0.005625  
   1     5   1     3     2     5  0.0228     0.0228     0.008438  
   1     6   1     3     1     4  0.0328     0.0328     0.01000   
   1     7   1     4     1     5  0.0428     0.0428     0.01000   
   1     8   1     3     1     4  0.0528     0.0528     0.01000   
   1     9   1     3     1     4  0.0628     0.0628     0.01000   
   1    10   1     3     1     4  0.0728     0.0728     0.01000   
   1    11   1     3     1     4  0.0828     0.0828     0.01000   
   1    12   1     4     1     5  0.0928     0.0928     0.01000   
   1    13   1     4     1     5  0.103      0.103      0.01000   
   1    14   1     5     1     6  0.113      0.113      0.01000   
   1    15   1     3     1     4  0.123      0.123      0.01000   
   1    16   1     3     1     4  0.133      0.133      0.01000   
   1    17   1     3     1     4  0.143      0.143      0.01000   
   1    18   1     3     4     7  0.153      0.153      0.01000   
   1    19   1     3     1     4  0.163      0.163      0.01000   
   1    20   1     3     2     5  0.173      0.173      0.01000   
   1    21   1     3     2     5  0.183      0.183      0.01000   
   1    22   1U    3     4     7  0.183      0.183      0.01000   
   1    22   2     2     1     3  0.185      0.185      0.002500  
   1    23   1U    2     4     6  0.185      0.185      0.003750  
   1    23   2     2     1     3  0.186      0.186      0.001000  
   1    24   1     2     1     3  0.188      0.188      0.001500  
   1    25   1U    2     5     7  0.188      0.188      0.002250  
   1    25   2     1     1     2  0.189      0.189      0.001000  
   1    26   1     2     1     3  0.190      0.190      0.001500  
   1    27   1     2     1     3  0.193      0.193      0.002250  
   1    28   1U    2     1     3  0.193      0.193      0.003375  
   1    28   2     1     1     2  0.194      0.194      0.001000  
   1    29   1U    2     2     4  0.194      0.194      0.001500  
   1    29   2U    1     4     5  0.194      0.194      0.001000  
                          
 THE ANALYSIS HAS NOT BEEN COMPLETED
