 Abaqus/Standard 2025                  DATE 13-Apr-2026 TIME 20:04:56
 SUMMARY OF JOB INFORMATION:
 STEP  INC ATT SEVERE EQUIL TOTAL  TOTAL      STEP       INC OF       DOF    IF
               DISCON ITERS ITERS  TIME/    TIME/LPF    TIME/LPF    MONITOR RIKS
               ITERS               FREQ
   1     1   1     3     1     4  0.0250     0.0250     0.02500   
   1     2   1     3     2     5  0.0500     0.0500     0.02500   
   1     3   1     3     2     5  0.0750     0.0750     0.02500   
   1     4   1     4     2     6  0.100      0.100      0.02500   
   1     5   1     3     2     5  0.125      0.125      0.02500   
   1     6   1     4     1     5  0.150      0.150      0.02500   
   1     7   1     3     2     5  0.175      0.175      0.02500   
   1     8   1     4     1     5  0.200      0.200      0.02500   
   1     9   1     5     1     6  0.225      0.225      0.02500   
   1    10   1     4     2     6  0.250      0.250      0.02500   
   1    11   1     5     1     6  0.275      0.275      0.02500   
   1    12   1U    2     1     3  0.275      0.275      0.02500   
   1    12   2     3     2     5  0.281      0.281      0.006250  
   1    13   1     5     1     6  0.291      0.291      0.009375  
   1    14   1     3     2     5  0.305      0.305      0.01406   
   1    15   1     4     2     6  0.326      0.326      0.02109   
   1    16   1     2     2     4  0.333      0.333      0.007296  
   1    17   2     2     2     4  0.336      0.336      0.002829  
                          
 THE ANALYSIS HAS COMPLETED SUCCESSFULLY
