 Abaqus/Standard 2025                  DATE 10-Apr-2026 TIME 14:08:44
 SUMMARY OF JOB INFORMATION:
 STEP  INC ATT SEVERE EQUIL TOTAL  TOTAL      STEP       INC OF       DOF    IF
               DISCON ITERS ITERS  TIME/    TIME/LPF    TIME/LPF    MONITOR RIKS
               ITERS               FREQ
   1     1   1     0     1     1  0.0100     0.0100     0.01000   
   1     2   1     2     2     4  0.0200     0.0200     0.01000   
   1     3   1     3     2     5  0.0350     0.0350     0.01500   
   1     4   1     3     2     5  0.0575     0.0575     0.02250   
   1     5   1     4     1     5  0.0825     0.0825     0.02500   
   1     6   1     3     2     5  0.108      0.108      0.02500   
   1     7   1     4     1     5  0.133      0.133      0.02500   
   1     8   1     2     2     4  0.158      0.158      0.02500   
   1     9   1     3     2     5  0.182      0.182      0.02500   
   1    10   1     4     1     5  0.207      0.207      0.02500   
   1    11   1     3     2     5  0.232      0.232      0.02500   
   1    12   1     3     2     5  0.258      0.258      0.02500   
   1    13   1     4     1     5  0.283      0.283      0.02500   
   1    14   1     3     2     5  0.308      0.308      0.02500   
   1    15   1     3     2     5  0.333      0.333      0.02500   
   1    16   1     3     3     6  0.358      0.358      0.02500   
   1    17   1     3     5     8  0.383      0.383      0.02500   
   1    18   1     3     7    10  0.408      0.408      0.02500   
   1    19   1     4     1     5  0.433      0.433      0.02500   
   1    20   1     4     1     5  0.458      0.458      0.02500   
   1    21   1     4     1     5  0.483      0.483      0.02500   
   1    22   1     6     4    10  0.508      0.508      0.02500   
   1    23   1     4     2     6  0.533      0.533      0.02500   
   1    24   1U    0     1     1  0.533      0.533      0.02500   
   1    24   2     3     2     5  0.539      0.539      0.006250  
   1    25   1     4     1     5  0.548      0.548      0.009375  
   1    26   1U    1     1     2  0.548      0.548      0.01406   
   1    26   2     3     2     5  0.552      0.552      0.003516  
   1    27   1U    3     5     8  0.552      0.552      0.005273  
   1    27   2     2     2     4  0.553      0.553      0.001318  
   1    28   1     2     2     4  0.555      0.555      0.001978  
   1    29   1U    4     9    13  0.555      0.555      0.002966  
   1    29   2     1     3     4  0.556      0.556      0.0007416 
   1    30   1U    3     7    10  0.556      0.556      0.001112  
   1    30   2U    1     5     6  0.556      0.556      0.0002781 
   1    30   3U    1     8     9  0.556      0.556      6.952e-05 
   1    30   4U    1     6     7  0.556      0.556      1.738e-05 
   1    30   5U    1    11    12  0.556      0.556      1.000e-05 
                          
 THE ANALYSIS HAS NOT BEEN COMPLETED
