 Abaqus/Standard 2025                  DATE 18-Apr-2026 TIME 09:33:33
 SUMMARY OF JOB INFORMATION:
 STEP  INC ATT SEVERE EQUIL TOTAL  TOTAL      STEP       INC OF       DOF    IF
               DISCON ITERS ITERS  TIME/    TIME/LPF    TIME/LPF    MONITOR RIKS
               ITERS               FREQ
   1     1   1     0     1     1  0.0100     0.0100     0.01000   
   1     2   1     3     2     5  0.0200     0.0200     0.01000   
   1     3   1     3     1     4  0.0350     0.0350     0.01500   
   1     4   1     4     1     5  0.0575     0.0575     0.02250   
   1     5   1     4     1     5  0.0825     0.0825     0.02500   
   1     6   1     5     0     5  0.108      0.108      0.02500   
   1     7   1     4     2     6  0.133      0.133      0.02500   
   1     8   1     4     1     5  0.158      0.158      0.02500   
   1     9   1     3     2     5  0.182      0.182      0.02500   
   1    10   1U    1     1     2  0.182      0.182      0.02500   
   1    10   2     4     1     5  0.189      0.189      0.006250  
   1    11   1     3     4     7  0.198      0.198      0.009375  
   1    12   1U    1     1     2  0.198      0.198      0.01406   
   1    12   2U    2     3     5  0.198      0.198      0.003516  
   1    12   3     2     1     3  0.199      0.199      0.001000  
   1    13   1     3     1     4  0.201      0.201      0.001500  
   1    14   1     2     6     8  0.203      0.203      0.002250  
   1    15   1     1     5     6  0.205      0.205      0.002250  
   1    16   1U    2     2     4  0.205      0.205      0.002250  
   1    16   2     1     8     9  0.206      0.206      0.001000  
   1    17   1     1    16    17  0.207      0.207      0.001000  
   1    18   1U    1     4     5  0.207      0.207      0.001000  
                          
 THE ANALYSIS HAS NOT BEEN COMPLETED
