 Abaqus/Standard 2025                  DATE 15-Apr-2026 TIME 01:24:17
 SUMMARY OF JOB INFORMATION:
 STEP  INC ATT SEVERE EQUIL TOTAL  TOTAL      STEP       INC OF       DOF    IF
               DISCON ITERS ITERS  TIME/    TIME/LPF    TIME/LPF    MONITOR RIKS
               ITERS               FREQ
   1     1   1     2     1     3  0.0250     0.0250     0.02500   
   1     2   1     3     2     5  0.0500     0.0500     0.02500   
   1     3   1     3     2     5  0.0750     0.0750     0.02500   
   1     4   1     3     2     5  0.100      0.100      0.02500   
   1     5   1     4     1     5  0.125      0.125      0.02500   
   1     6   1     3     2     5  0.150      0.150      0.02500   
   1     7   1     3     2     5  0.175      0.175      0.02500   
   1     8   1     3     2     5  0.200      0.200      0.02500   
   1     9   1     3     2     5  0.225      0.225      0.02500   
   1    10   1     3     2     5  0.250      0.250      0.02500   
   1    11   1     3     2     5  0.275      0.275      0.02500   
   1    12   1     3     2     5  0.300      0.300      0.02500   
   1    13   2     3     1     4  0.320      0.320      0.02015   
   1    14   1     1     2     3  0.320      0.320      0.0002071 
                          
 THE ANALYSIS HAS COMPLETED SUCCESSFULLY
