 Abaqus/Standard 2025                  DATE 10-Apr-2026 TIME 15:26:57
 SUMMARY OF JOB INFORMATION:
 STEP  INC ATT SEVERE EQUIL TOTAL  TOTAL      STEP       INC OF       DOF    IF
               DISCON ITERS ITERS  TIME/    TIME/LPF    TIME/LPF    MONITOR RIKS
               ITERS               FREQ
   1     1   1     0     1     1  0.0100     0.0100     0.01000   
   1     2   1     4     2     6  0.0200     0.0200     0.01000   
   1     3   1     4     1     5  0.0350     0.0350     0.01500   
   1     4   1     4     1     5  0.0575     0.0575     0.02250   
   1     5   1     4     1     5  0.0825     0.0825     0.02500   
   1     6   1     3     2     5  0.108      0.108      0.02500   
   1     7   2     3     1     4  0.122      0.122      0.01450   
                          
 THE ANALYSIS HAS COMPLETED SUCCESSFULLY
