 Abaqus/Standard 2025                  DATE 21-Apr-2026 TIME 19:26:31
 SUMMARY OF JOB INFORMATION:
 STEP  INC ATT SEVERE EQUIL TOTAL  TOTAL      STEP       INC OF       DOF    IF
               DISCON ITERS ITERS  TIME/    TIME/LPF    TIME/LPF    MONITOR RIKS
               ITERS               FREQ
   1     1   1U    0     4     4  0.00       0.00       0.01000   
   1     1   2     0     3     3  0.00250    0.00250    0.002500  
   1     2   1     0     1     1  0.00500    0.00500    0.002500  
   1     3   1     0     1     1  0.00875    0.00875    0.003750  
   1     4   1     4     1     5  0.0144     0.0144     0.005625  
   1     5   1     3     2     5  0.0228     0.0228     0.008438  
   1     6   1     4     1     5  0.0328     0.0328     0.01000   
   1     7   1     4     1     5  0.0428     0.0428     0.01000   
   1     8   1     3     1     4  0.0528     0.0528     0.01000   
   1     9   1     3     1     4  0.0628     0.0628     0.01000   
   1    10   1     3     1     4  0.0728     0.0728     0.01000   
   1    11   1     4     1     5  0.0828     0.0828     0.01000   
   1    12   1     4     1     5  0.0928     0.0928     0.01000   
   1    13   1     4     1     5  0.103      0.103      0.01000   
   1    14   1     5     1     6  0.113      0.113      0.01000   
   1    15   1     5     0     5  0.123      0.123      0.01000   
   1    16   1     4     1     5  0.133      0.133      0.01000   
   1    17   1     3     1     4  0.143      0.143      0.01000   
   1    18   1     4     1     5  0.153      0.153      0.01000   
   1    19   1     4     1     5  0.163      0.163      0.01000   
   1    20   1     4     1     5  0.173      0.173      0.01000   
   1    21   1     4     1     5  0.183      0.183      0.01000   
   1    22   1     3     1     4  0.193      0.193      0.01000   
   1    23   1     7     3    10  0.203      0.203      0.01000   
   1    24   1U    0     1     1  0.203      0.203      0.01000   
   1    24   2     6     1     7  0.205      0.205      0.002500  
   1    25   1     3     1     4  0.209      0.209      0.003750  
   1    26   1     4     1     5  0.215      0.215      0.005625  
   1    27   1U    5     0     5  0.215      0.215      0.008438  
   1    27   2     2     1     3  0.217      0.217      0.002109  
   1    28   1U    8     1     9  0.217      0.217      0.003164  
   1    28   2     1     2     3  0.218      0.218      0.001000  
   1    29   1U    4     0     4  0.218      0.218      0.001500  
   1    29   2     2     1     3  0.219      0.219      0.001000  
   1    30   1U    9     0     9  0.219      0.219      0.001500  
   1    30   2U    4     0     4  0.219      0.219      0.001000  
                          
 THE ANALYSIS HAS NOT BEEN COMPLETED
