 Abaqus/Standard 2025                  DATE 19-Apr-2026 TIME 11:31:51
 SUMMARY OF JOB INFORMATION:
 STEP  INC ATT SEVERE EQUIL TOTAL  TOTAL      STEP       INC OF       DOF    IF
               DISCON ITERS ITERS  TIME/    TIME/LPF    TIME/LPF    MONITOR RIKS
               ITERS               FREQ
   1     1   1     0     1     1  0.0100     0.0100     0.01000   
   1     2   1     3     2     5  0.0200     0.0200     0.01000   
   1     3   1     3     1     4  0.0300     0.0300     0.01000   
   1     4   1     3     2     5  0.0400     0.0400     0.01000   
   1     5   1     3     2     5  0.0500     0.0500     0.01000   
   1     6   1     3     2     5  0.0600     0.0600     0.01000   
   1     7   1     3     2     5  0.0700     0.0700     0.01000   
   1     8   1     3     2     5  0.0800     0.0800     0.01000   
   1     9   1     3     2     5  0.0900     0.0900     0.01000   
   1    10   1     4     1     5  0.100      0.100      0.01000   
   1    11   1     4     2     6  0.110      0.110      0.01000   
   1    12   1     3     2     5  0.120      0.120      0.01000   
   1    13   1     3     2     5  0.130      0.130      0.01000   
   1    14   1     3     2     5  0.140      0.140      0.01000   
   1    15   1     3     2     5  0.150      0.150      0.01000   
   1    16   1     4     1     5  0.160      0.160      0.01000   
   1    17   1     4     1     5  0.170      0.170      0.01000   
   1    18   1     4     1     5  0.180      0.180      0.01000   
   1    19   1     3     2     5  0.190      0.190      0.01000   
   1    20   1U    1     1     2  0.190      0.190      0.01000   
   1    20   2U    6     1     7  0.190      0.190      0.002500  
   1    20   3     1     2     3  0.191      0.191      0.001000  
   1    21   1     1     2     3  0.193      0.193      0.001500  
   1    22   1     1    10    11  0.195      0.195      0.002250  
   1    23   1U    1     1     2  0.195      0.195      0.002250  
   1    23   2U    3     1     4  0.195      0.195      0.001000  
                          
 THE ANALYSIS HAS NOT BEEN COMPLETED
